dss_files/linecode.dss
new linecode.lc_0_3ph nphases=3 r1=1.444 x1=0.409000009 b1=3.7 r0=1.664000034 x0=1.593000054 b0=3.7 units=km normamp=102.0 !Assuming 100A capacity of 25kV considering line 2.5MW peak load
new linecode.lc_1_3ph nphases=3 r1=0.074 x1=0.071 b1=329.9 r0=0.289 x0=0.664 b0=329.9 units=km normamp=500.0 !Assuming 500A capacity of 2.4kV considering 2.5MW peak load
new linecode.lc_226-3ph nphases=1 r1=6.015 x1=0.746 b1=0.0001 r0=1.901 x0=6.164 b0=0.0001 units=km normamp=33.0
